@<TRIPOS>MOLECULE
UNL 
31 33 0 0 0
SMALL
USER_CHARGES
#CGenFF output mol2 file
@<TRIPOS>ATOM
1	C1    61.0220    75.4620    19.6470	C.ar	1	UNL1    -0.1070
2	C2    63.2350    75.3490    18.6670	C.ar	1	UNL1    -0.1070
3	C3    60.4580    75.2530    18.3840	C.ar	1	UNL1    -0.1150
4	C4    62.6680    75.1410    17.4070	C.ar	1	UNL1    -0.1150
5	C5    66.0910    74.3100    24.9570	C.ar	1	UNL1    -0.1120
6	C6    65.8130    75.5590    24.3930	C.ar	1	UNL1    -0.1150
7	C7    64.8060    73.2220    23.2090	C.ar	1	UNL1    -0.1160
8	C8    64.1430    76.8690    21.1790	C.3	1	UNL1    -0.1910
9	C9    62.4230    75.5130    19.8050	C.ar	1	UNL1    -0.0320
10	C10    61.2800    75.0920    17.2600	C.ar	1	UNL1     0.1080
11	C11    65.5930    73.1380    24.3640	C.ar	1	UNL1     0.1120
12	C12    65.0370    75.6410    23.2280	C.ar	1	UNL1    -0.0410
13	C13    64.7260    76.9260    22.5660	C.2	1	UNL1     0.3770
14	C14    63.1030    75.7350    21.1450	C.3	1	UNL1     0.0770
15	C15    64.5150    74.4690    22.6450	C.ar	1	UNL1     0.2500
16	O1    60.7470    74.8900    16.0370	O.3	1	UNL1    -0.5310
17	O2    65.8580    71.9290    24.8980	O.3	1	UNL1    -0.5310
18	O3    64.9240    77.9950    23.1210	O.2	1	UNL1    -0.4470
19	O4    63.7180    74.5510    21.5460	O.3	1	UNL1    -0.2880
20	H1    64.1138    74.3480    18.8326	H	1	UNL1     0.1160
21	H2    60.7122    76.5100    20.3931	H	1	UNL1     0.1160
22	H3    62.9827    74.1445    16.6620	H	1	UNL1     0.1160
23	H4    59.5914    76.2934    18.2053	H	1	UNL1     0.1160
24	H5    66.4839    74.3683    25.9884	H	1	UNL1     0.1160
25	H6    66.0934    76.5280    24.8217	H	1	UNL1     0.1160
26	H7    64.4241    72.2842    22.8297	H	1	UNL1     0.1160
27	H8    63.6745    77.6882    20.8418	H	1	UNL1     0.0900
28	H9    64.9843    76.5820    20.3489	H	1	UNL1     0.0900
29	H10    62.4267    75.7676    21.8935	H	1	UNL1     0.0900
30	H11    61.1087    74.6330    15.4891	H	1	UNL1     0.4210
31	H12    65.3607    71.3005    24.6497	H	1	UNL1     0.4210
@<TRIPOS>BOND
1	1	3	2
2	1	9	1
3	2	4	1
4	2	9	2
5	3	10	1
6	4	10	2
7	5	6	2
8	5	11	1
9	6	12	1
10	7	11	2
11	7	15	1
12	8	13	1
13	8	14	1
14	9	14	1
15	10	16	1
16	11	17	1
17	12	13	1
18	12	15	2
19	13	18	2
20	14	19	1
21	15	19	1
22	1	20	1
23	2	21	1
24	3	22	1
25	4	23	1
26	5	24	1
27	6	25	1
28	7	26	1
29	8	27	1
30	8	28	1
31	14	29	1
32	16	30	1
33	17	31	1
