@<TRIPOS>MOLECULE
UNL 
32 34 0 0 0
SMALL
USER_CHARGES
#CGenFF output mol2 file
@<TRIPOS>ATOM
1	C1    53.5940   150.3380    24.8550	C.3	1	UNL1    -0.0940
2	C2    52.2070   153.9680    26.6210	C.ar	1	UNL1    -0.1160
3	C3    51.5410   152.6850    28.5530	C.ar	1	UNL1    -0.1160
4	C4    48.6010   158.2520    31.3380	C.ar	1	UNL1    -0.1110
5	C5    52.5070   152.7850    25.9410	C.ar	1	UNL1    -0.1240
6	C6    51.8460   151.5040    27.8710	C.ar	1	UNL1    -0.1240
7	C7    48.7650   157.0170    30.7030	C.ar	1	UNL1    -0.1220
8	C8    50.8050   158.9320    30.6030	C.ar	1	UNL1    -0.1160
9	C9    52.3390   156.3050    28.6890	C.ar	1	UNL1     0.5360
10	C10    51.7110   153.9540    27.9480	C.ar	1	UNL1    -0.1520
11	C11    49.6190   159.2130    31.2890	C.ar	1	UNL1     0.1120
12	C12    52.3320   151.5440    26.5550	C.ar	1	UNL1     0.2170
13	C13    49.9590   156.7270    30.0130	C.ar	1	UNL1    -0.1620
14	C14    51.3920   155.2530    28.6720	C.ar	1	UNL1     0.0230
15	C15    50.9770   157.6970    29.9650	C.ar	1	UNL1     0.4950
16	C16    50.1700   155.4970    29.3590	C.ar	1	UNL1     0.2700
17	O1    49.4730   160.4070    31.8980	O.3	1	UNL1    -0.5280
18	O2    49.2810   154.6650    29.3770	O.2	1	UNL1    -0.4160
19	O3    52.6430   150.4260    25.8490	O.3	1	UNL1    -0.3830
20	O4    52.1040   157.4490    29.3180	O.2	1	UNL1    -0.8220
21	H1    52.6671   148.8883    24.8237	H	1	UNL1     0.0900
22	H2    51.4111   149.3398    25.9829	H	1	UNL1     0.0900
23	H3    51.6094   150.2501    24.4344	H	1	UNL1     0.0900
24	H4    53.9694   154.2295    28.3123	H	1	UNL1     0.1160
25	H5    49.8405   153.5630    27.2399	H	1	UNL1     0.1160
26	H6    47.9342   158.1727    32.3500	H	1	UNL1     0.1160
27	H7    54.5948   152.1786    27.1136	H	1	UNL1     0.1160
28	H8    50.4667   151.5310    26.0656	H	1	UNL1     0.1160
29	H9    48.3756   155.9510    31.3282	H	1	UNL1     0.1160
30	H10    51.1931   159.8603    30.0940	H	1	UNL1     0.1160
31	H11    52.9431   156.5584    27.6381	H	1	UNL1     0.2300
32	H12    49.8747   161.0110    31.5451	H	1	UNL1     0.4210
@<TRIPOS>BOND
1	1	19	1
2	2	5	2
3	2	10	1
4	3	6	1
5	3	10	2
6	4	7	2
7	4	11	1
8	5	12	1
9	6	12	2
10	7	13	1
11	8	11	2
12	8	15	1
13	9	14	2
14	9	20	1
15	10	14	1
16	11	17	1
17	12	19	1
18	13	15	2
19	13	16	1
20	14	16	1
21	15	20	1
22	16	18	2
23	1	21	1
24	1	22	1
25	1	23	1
26	2	24	1
27	3	25	1
28	4	26	1
29	5	27	1
30	6	28	1
31	7	29	1
32	8	30	1
33	9	31	1
34	17	32	1
