@<TRIPOS>MOLECULE
UNL 
33 35 0 0 0
SMALL
USER_CHARGES
#CGenFF output mol2 file
@<TRIPOS>ATOM
1	C1    19.4260    31.2040     4.2030	C.3	1	UNL1    -0.0940
2	C2    17.9380    27.0270     2.5600	C.ar	1	UNL1    -0.1160
3	C3    19.0920    26.8320     4.6720	C.ar	1	UNL1    -0.1160
4	C4    17.8560    28.4120     2.7370	C.ar	1	UNL1    -0.1240
5	C5    19.0100    28.2160     4.8410	C.ar	1	UNL1    -0.1240
6	C6    20.2550    20.4850     1.3500	C.ar	1	UNL1    -0.1120
7	C7    18.6710    20.5040     3.1650	C.ar	1	UNL1    -0.1160
8	C8    17.9050    23.8400     4.1960	C.ar	1	UNL1     0.5360
9	C9    18.5610    26.1940     3.5220	C.ar	1	UNL1    -0.1520
10	C10    19.4420    19.7930     2.2500	C.ar	1	UNL1     0.1140
11	C11    18.3950    29.0190     3.8830	C.ar	1	UNL1     0.2170
12	C12    18.6590    24.6860     3.3570	C.ar	1	UNL1     0.0230
13	C13    20.3090    21.8840     1.3470	C.ar	1	UNL1     0.0780
14	C14    18.7020    21.9000     3.1890	C.ar	1	UNL1     0.4820
15	C15    19.5160    22.6270     2.2850	C.ar	1	UNL1    -0.1560
16	C16    19.4820    24.0460     2.3870	C.ar	1	UNL1     0.2560
17	O1    19.3950    18.4460     2.2470	O.3	1	UNL1    -0.5280
18	O2    21.1320    22.4380     0.4250	O.3	1	UNL1    -0.4850
19	O3    20.1820    24.7180     1.6590	O.2	1	UNL1    -0.4160
20	O4    18.3410    30.3590     4.0990	O.3	1	UNL1    -0.3830
21	O5    17.9530    22.5240     4.0800	O.2	1	UNL1    -0.8220
22	H1    19.5136    31.1325     2.7473	H	1	UNL1     0.0900
23	H2    17.7094    31.1360     2.6428	H	1	UNL1     0.0900
24	H3    18.5530    32.2370     3.7384	H	1	UNL1     0.0900
25	H4    18.6119    26.0565     5.7863	H	1	UNL1     0.1160
26	H5    18.7038    26.6937     1.5178	H	1	UNL1     0.1160
27	H6    18.5212    28.4874     6.1315	H	1	UNL1     0.1160
28	H7    18.6235    29.0966     1.8677	H	1	UNL1     0.1160
29	H8    20.9462    19.8714     0.7815	H	1	UNL1     0.1160
30	H9    17.6542    20.0442     3.5278	H	1	UNL1     0.1160
31	H10    17.0090    24.2818     4.6617	H	1	UNL1     0.2300
32	H11    18.4680    18.1462     2.5753	H	1	UNL1     0.4210
33	H12    21.9229    21.7949     0.2836	H	1	UNL1     0.4210
@<TRIPOS>BOND
1	1	20	1
2	2	4	2
3	2	9	1
4	3	5	1
5	3	9	2
6	4	11	1
7	5	11	2
8	6	10	2
9	6	13	1
10	7	10	1
11	7	14	2
12	8	12	2
13	8	21	1
14	9	12	1
15	10	17	1
16	11	20	1
17	12	16	1
18	13	15	2
19	13	18	1
20	14	15	1
21	14	21	1
22	15	16	1
23	16	19	2
24	1	22	1
25	1	23	1
26	1	24	1
27	2	25	1
28	3	26	1
29	4	27	1
30	5	28	1
31	6	29	1
32	7	30	1
33	8	31	1
34	17	32	1
35	18	33	1
